Using: /usr/bin/time -p /ad/eng/support/software/linux/all/all/synopsys/hspice/hspice/linux/hspice  XORX2_nangate45.sp -o ../hspice_data/OAI21_nangate45
